LTspice 24.0.9 for Windows
Circuit: * C:\hoc\nam 4 ver 2\thiet ke mach VLSI\file ltspice\Khuech dai cong suat\che do A.asc
Start Time: Mon Apr  1 21:40:18 2024
solver = Normal
Maximum thread count: 12
tnom = 27
temp = 27
method = modified trap
WARNING: Node OUT is floating.

WARNING: Less than two connections to node out.  This node is used by c2.
Direct Newton iteration for .op point succeeded.
Total elapsed time: 0.056 seconds.

