Circuit: * C:\hoc\nam 4 ver 2\thiet ke mach VLSI\file ltspice\Khuech dai cong suat\CheDoA.asc

WARNING: Node OUT is floating.

WARNING: Less than two connections to node OUT.  This node is used by C2.
Direct Newton iteration for .op point succeeded.

Date: Tue Feb 27 14:52:25 2024
Total elapsed time: 0.045 seconds.

tnom = 27
temp = 27
method = trap
totiter = 11
traniter = 0
tranpoints = 0
accept = 0
rejected = 0
matrix size = 12
fillins = 4
solver = Normal
Matrix Compiler1:      44 opcodes
Matrix Compiler2: 988 bytes object code size
