Circuit: * C:\hoc\nam 4 ver 2\thiet ke mach VLSI\tu lam thu vien ltspice\machNMOS\machNMOS.asc

Ignoring BSIM parameter XL
Ignoring BSIM parameter XW
Error on line 3 : v2 n001 0 sine() ac 1 0 0.1
	No such parameter on this device
Warning: Pd = 0 is less than W.
Warning: Ps = 0 is less than W.
No AC stimulus found:
     Set the value of a current or voltage source to "AC 1."
     to make it behave as a signal generator for AC analysis.
Direct Newton iteration for .op point succeeded.

Date: Tue Feb 20 14:18:22 2024
Total elapsed time: 0.156 seconds.

tnom = 27
temp = 27
method = trap
totiter = 4
traniter = 0
tranpoints = 0
accept = 0
rejected = 0
matrix size = 4
fillins = 0
solver = Normal
Matrix Compiler1:       7 opcodes
Matrix Compiler2: 216 bytes object code size
