Circuit: * C:\hoc\nam 4 ver 2\thiet ke mach VLSI\tu lam thu vien ltspice\inv\Draft3.asc

Ignoring BSIM parameter XL
Ignoring BSIM parameter XW
Ignoring BSIM parameter XL
Ignoring BSIM parameter XW
WARNING: Node IN is floating.

WARNING: Less than two connections to node NC_01.  This node is used by V1.
Warning: Pd = 0 is less than W.
Warning: Ps = 0 is less than W.
Warning: Pd = 0 is less than W.
Warning: Ps = 0 is less than W.
.OP point found by inspection.
Ignoring empty pin current: Ix(x1:gnd)
Ignoring empty pin current: Ix(x1:gnd)

Date: Tue Feb 20 15:21:31 2024
Total elapsed time: 0.188 seconds.

tnom = 27
temp = 27
method = modified trap
totiter = 558
traniter = 558
tranpoints = 280
accept = 280
rejected = 0
matrix size = 5
fillins = 0
solver = Normal
Matrix Compiler1:      13 opcodes  0.1/[0.0]/0.1
Matrix Compiler2: off  [0.0]/0.0/0.1

