Circuit: * C:\hoc\nam 4 ver 2\thiet ke mach VLSI\tu lam thu vien ltspice\mach PMOS\Draft1.asc

Ignoring BSIM parameter XL
Ignoring BSIM parameter XW
WARNING: Node NC_01 is floating.

WARNING: Less than two connections to node NC_01.  This node is used by M1.
Warning: Pd = 0 is less than W.
Warning: Ps = 0 is less than W.
.dc: Increment so large that there's only one step.
.OP point found by inspection.
.step v2=0
.step v2=2

Date: Tue Jan 23 15:55:07 2024
Total elapsed time: 0.087 seconds.

tnom = 27
temp = 27
method = trap
totiter = 82
traniter = 0
tranpoints = 0
accept = 0
rejected = 0
matrix size = 5
fillins = 0
solver = Normal
Matrix Compiler1:      12 opcodes
Matrix Compiler2:      28 opcodes
