LTspice 24.0.9 for Windows
Circuit: * C:\hoc\nam 4 ver 2\thiet ke mach VLSI\file ltspice\0204\0204.asc
Start Time: Sat Apr  6 16:34:20 2024
Ignoring BSIM parameter XL
Ignoring BSIM parameter XW
solver = Normal
Maximum thread count: 12



Warning: Pd = 0 is less than W.
Warning: Ps = 0 is less than W.
Direct Newton iteration for .op point succeeded.
.step r1=1000



.step r1=1010



.step r1=1020



.step r1=1030



.step r1=1040



.step r1=1050



.step r1=1060



.step r1=1070



.step r1=1080



.step r1=1090



.step r1=1100



.step r1=1110



.step r1=1120



.step r1=1130



.step r1=1140



.step r1=1150



.step r1=1160



.step r1=1170



.step r1=1180



.step r1=1190
tnom = 27
temp = 27
method = modified trap
.step r1=1200
Total elapsed time: 0.656 seconds.

