Circuit: * C:\hoc\nam 4 ver 2\thiet ke mach VLSI\file ltspice\1232024\abcd.asc

Ignoring BSIM parameter XL
Ignoring BSIM parameter XW
Ignoring BSIM parameter XL
Ignoring BSIM parameter XW
WARNING: Node N008 is floating.
WARNING: Node N009 is floating.
WARNING: Node N007 is floating.
WARNING: Node N004 is floating.
WARNING: Node N003 is floating.
WARNING: Node N015 is floating.
WARNING: Node N012 is floating.
WARNING: Node N016 is floating.
WARNING: Node N017 is floating.
WARNING: Node N018 is floating.
WARNING: Node N002 is floating.
WARNING: Node N006 is floating.
WARNING: Node N014 is floating.
WARNING: Node N013 is floating.

WARNING: Less than two connections to node N008.  This node is used by M1.
WARNING: Less than two connections to node N007.  This node is used by M2.
WARNING: Less than two connections to node N004.  This node is used by M3.
WARNING: Less than two connections to node N003.  This node is used by M4.
WARNING: Less than two connections to node N015.  This node is used by M5.
WARNING: Less than two connections to node N012.  This node is used by M6.
WARNING: Less than two connections to node N016.  This node is used by M7.
WARNING: Less than two connections to node N017.  This node is used by M8.
WARNING: Less than two connections to node N018.  This node is used by M9.
WARNING: Less than two connections to node N002.  This node is used by M10.
WARNING: Less than two connections to node N006.  This node is used by M11.
WARNING: Less than two connections to node N014.  This node is used by M13.
WARNING: Less than two connections to node N013.  This node is used by M15.
Warning: Pd = 0 is less than W.
Warning: Ps = 0 is less than W.
Warning: Pd = 0 is less than W.
Warning: Ps = 0 is less than W.
Warning: Pd = 0 is less than W.
Warning: Ps = 0 is less than W.
Warning: Pd = 0 is less than W.
Warning: Ps = 0 is less than W.
Warning: Pd = 0 is less than W.
Warning: Ps = 0 is less than W.
Warning: Pd = 0 is less than W.
Warning: Ps = 0 is less than W.
Warning: Pd = 0 is less than W.
Warning: Ps = 0 is less than W.
.OP point found by inspection.

Date: Tue Mar 19 13:42:11 2024
Total elapsed time: 0.043 seconds.

tnom = 27
temp = 27
method = trap
totiter = 401
traniter = 0
tranpoints = 0
accept = 0
rejected = 0
matrix size = 22
fillins = 4
solver = Normal
Matrix Compiler1: 2.22 KB object code size  0.4/0.2/[0.1]
Matrix Compiler2: off  [0.1]/0.2/0.4

