Circuit: * C:\hoc\nam 4 ver 2\thiet ke mach VLSI\file ltspice\1232024\trg637.asc

Ignoring BSIM parameter XL
Ignoring BSIM parameter XW
Ignoring BSIM parameter XL
Ignoring BSIM parameter XW
Warning: Pd = 0 is less than W.
Warning: Ps = 0 is less than W.
Warning: Pd = 0 is less than W.
Warning: Ps = 0 is less than W.
Warning: Pd = 0 is less than W.
Warning: Ps = 0 is less than W.
Warning: Pd = 0 is less than W.
Warning: Ps = 0 is less than W.
Warning: Pd = 0 is less than W.
Warning: Ps = 0 is less than W.
Warning: Pd = 0 is less than W.
Warning: Ps = 0 is less than W.
.OP point found by inspection.

Date: Tue Mar 19 15:41:17 2024
Total elapsed time: 0.191 seconds.

tnom = 27
temp = 27
method = trap
totiter = 4401
traniter = 0
tranpoints = 0
accept = 0
rejected = 0
matrix size = 8
fillins = 0
solver = Normal
Matrix Compiler1:      31 opcodes  0.2/[0.1]/0.1
Matrix Compiler2: 738 bytes object code size  0.1/0.1/[0.1]

