LTspice 24.0.9 for Windows
Circuit: * C:\hoc\nam 4 ver 2\thiet ke mach VLSI\file ltspice\1232024\Vref.asc
Start Time: Wed May 22 20:31:32 2024
Ignoring BSIM parameter XL
Ignoring BSIM parameter XW
Ignoring BSIM parameter XL
Ignoring BSIM parameter XW
solver = Normal
Maximum thread count: 12



WARNING: Node N002 is floating.

Warning: Pd = 0 is less than W.
Warning: Ps = 0 is less than W.
Warning: Pd = 0 is less than W.
Warning: Ps = 0 is less than W.
Warning: Pd = 0 is less than W.
Warning: Ps = 0 is less than W.
Warning: Pd = 0 is less than W.
Warning: Ps = 0 is less than W.
Warning: Pd = 0 is less than W.
Warning: Ps = 0 is less than W.
Warning: Pd = 0 is less than W.
Warning: Ps = 0 is less than W.
.step r1=3000
.OP point found by inspection.



.step r1=4000



.step r1=5000



.step r1=6000



.step r1=7000



.step r1=8000



.step r1=9000



.step r1=10000



.step r1=11000



.step r1=12000



.step r1=13000



.step r1=14000
tnom = 27
temp = 27
method = modified trap
.step r1=15000
Total elapsed time: 0.299 seconds.

