Circuit: * C:\hoc\nam 4 ver 2\thiet ke mach VLSI\file ltspice\khao sat dac tuyen tan so PMOS\PMOS f.asc

Direct Newton iteration for .op point succeeded.

Date: Wed Feb 21 22:12:32 2024
Total elapsed time: 0.038 seconds.

tnom = 27
temp = 27
method = trap
totiter = 5
traniter = 0
tranpoints = 0
accept = 0
rejected = 0
matrix size = 9
fillins = 0
solver = Normal
Matrix Compiler1:      22 opcodes
Matrix Compiler2: 633 bytes object code size
