LTspice 24.0.9 for Windows
Circuit: * C:\hoc\nam 4 ver 2\thiet ke mach VLSI\file ltspice\1232024\Inverting and non Inverting Amplifier\non-inverting Amplifier.asc
Start Time: Mon Apr  1 23:34:01 2024
solver = Normal
Maximum thread count: 12
tnom = 27
temp = 27
method = modified trap
Direct Newton iteration for .op point succeeded.
Total elapsed time: 0.138 seconds.

